Version 4
SHEET 1 1572 680
WIRE 592 128 432 128
WIRE 432 144 432 128
WIRE 432 256 432 224
WIRE 592 288 592 128
WIRE 304 320 208 320
WIRE 384 320 368 320
WIRE 208 352 208 320
WIRE 208 464 208 432
WIRE 432 464 432 320
WIRE 432 464 208 464
WIRE 592 464 592 368
WIRE 592 464 432 464
WIRE 432 496 432 464
FLAG 432 496 0
SYMBOL Misc\\TRIAC 400 256 R0
SYMATTR InstName U1
SYMBOL Misc\\DIAC 368 288 R90
WINDOW 0 0 32 VBottom 2
WINDOW 3 64 32 VTop 2
SYMATTR InstName U2
SYMATTR Value DB3
SYMBOL voltage 592 272 R0
WINDOW 123 0 0 Left 0
WINDOW 39 0 0 Left 0
SYMATTR InstName V1
SYMATTR Value {VCC}
SYMBOL Misc\\signal 208 336 R0
WINDOW 123 0 0 Left 0
WINDOW 39 0 0 Left 0
SYMATTR InstName V2
SYMATTR Value PWL(0 0 1 50)
SYMBOL res 416 128 R0
SYMATTR InstName R1
SYMATTR Value 4.7k
TEXT -88 40 Left 2 !.inc /home/eg/.wine/drive_c/users/eg/AppData/Local/LTspice/lib/st_diacs_pspice/st_diacs.lib
TEXT 174 588 Left 2 !.tran 0 2 1 10
TEXT -88 72 Left 2 !.inc /home/eg/.wine/drive_c/users/eg/AppData/Local/LTspice/lib/st_high-temp_H-series_triacs_Pspice/st_high-temperature_triacs.lib
TEXT 176 560 Left 2 !.step param VCC list 50 100 150
