Version 4
SHEET 1 1440 680
WIRE 432 144 288 144
WIRE 288 160 288 144
WIRE 432 240 432 144
WIRE 288 256 288 240
WIRE 240 320 144 320
WIRE 144 336 144 320
WIRE 288 336 288 320
WIRE 144 464 144 416
WIRE 288 464 288 416
WIRE 288 464 144 464
WIRE 432 464 432 320
WIRE 432 464 288 464
WIRE 288 496 288 464
FLAG 288 496 0
SYMBOL Misc\\SCR 272 256 R0
WINDOW 3 24 28 Left 2
SYMATTR InstName U1
SYMATTR Value BT151
SYMBOL res 272 144 R0
SYMATTR InstName R1
SYMATTR Value 4.7k
SYMBOL res 272 320 R0
SYMATTR InstName R2
SYMATTR Value 100
SYMBOL Misc\\signal 144 320 R0
WINDOW 123 0 0 Left 0
WINDOW 39 0 0 Left 0
SYMATTR InstName V2
SYMATTR Value PWL(0 0 1 10)
SYMBOL voltage 432 224 R0
SYMATTR InstName V1
SYMATTR Value 100
TEXT -280 80 Left 2 !.inc /home/eg/.wine/drive_c/users/eg/AppData/Local/LTspice/lib/st_high-temperature_scr_pspice/st_high-temperature_scr.lib
TEXT 136 544 Left 2 !.step param VCC list 50 100 150
TEXT 134 572 Left 2 !.tran 0 1 0 10m
