Version 4
SHEET 1 1496 708
WIRE 848 240 688 240
WIRE 688 272 688 240
WIRE 688 368 688 352
WIRE 848 368 848 240
WIRE 688 384 688 368
WIRE 624 448 528 448
WIRE 640 448 624 448
WIRE 528 464 528 448
WIRE 688 464 688 448
WIRE 528 560 528 544
WIRE 688 560 688 464
WIRE 688 560 528 560
WIRE 848 560 848 448
WIRE 848 560 688 560
WIRE 688 592 688 560
FLAG 688 592 0
FLAG 688 368 A
FLAG 688 464 K
FLAG 624 448 G
SYMBOL Misc\\SCR 672 384 R0
WINDOW 3 24 28 Left 2
SYMATTR InstName U1
SYMATTR Value BT151
SYMBOL voltage 848 352 R0
WINDOW 123 0 0 Left 0
WINDOW 39 0 0 Left 0
SYMATTR InstName V1
SYMATTR Value 100
SYMBOL res 672 256 R0
SYMATTR InstName R1
SYMATTR Value 4.7k
SYMBOL Misc\\signal 528 448 R0
WINDOW 123 0 0 Left 0
WINDOW 39 0 0 Left 0
SYMATTR InstName VG
SYMATTR Value PWL(0 0 1 2)
TEXT -24 32 Left 2 !.inc /home/eg/.wine/drive_c/users/eg/AppData/Local/LTspice/lib/st_high-temperature_scr_pspice/st_high-temperature_scr.lib
TEXT 518 692 Left 2 !.tran 0 1 0 0.1ms
