Version 4
SHEET 1 1572 816
WIRE 592 -48 432 -48
WIRE 432 -16 432 -48
WIRE 432 112 432 64
WIRE 432 112 80 112
WIRE 80 144 80 112
WIRE 80 240 80 224
WIRE 432 240 432 112
WIRE 432 272 432 240
WIRE 592 288 592 -48
WIRE 80 336 80 320
WIRE 160 336 80 336
WIRE 272 336 240 336
WIRE 288 336 272 336
WIRE 368 336 352 336
WIRE 384 336 368 336
WIRE 80 352 80 336
WIRE 432 384 432 336
WIRE 432 432 432 384
WIRE 80 480 80 432
WIRE 80 576 80 544
WIRE 432 576 432 512
WIRE 432 576 80 576
WIRE 592 576 592 368
WIRE 592 576 432 576
WIRE 432 640 432 576
FLAG 432 640 0
FLAG 368 336 G
FLAG 432 240 A1
FLAG 432 384 L
FLAG 272 336 D
SYMBOL Misc\\TRIAC 400 272 R0
SYMATTR InstName U1
SYMATTR Value BT136
SYMBOL Misc\\DIAC 352 304 R90
WINDOW 0 0 32 VBottom 2
WINDOW 3 64 32 VTop 2
SYMATTR InstName U2
SYMATTR Value DB3
SYMBOL res 416 -32 R0
SYMATTR InstName R1
SYMATTR Value 5k
SYMBOL res 64 336 R0
WINDOW 0 -37 39 Left 2
WINDOW 3 -199 78 Left 2
SYMATTR InstName R2
SYMATTR Value R=(1-A)*{RPOT}
SYMBOL res 64 224 R0
WINDOW 0 -36 27 Left 2
WINDOW 3 -134 64 Left 2
SYMATTR InstName R3
SYMATTR Value R=A*RPOT
SYMBOL Misc\\signal 592 272 R0
WINDOW 123 0 0 Left 0
WINDOW 39 0 0 Left 0
SYMATTR InstName V1
SYMATTR Value SINE(0 141 100)
SYMBOL res 256 320 R90
WINDOW 0 0 56 VBottom 2
WINDOW 3 32 56 VTop 2
SYMATTR InstName R5
SYMATTR Value 220
SYMBOL res 64 128 R0
SYMATTR InstName R4
SYMATTR Value 2.2k
SYMBOL cap 64 480 R0
SYMATTR InstName C1
SYMATTR Value 0.1µ
SYMBOL res 416 416 R0
SYMATTR InstName R6
SYMATTR Value 1
TEXT -128 -312 Left 2 !.inc /home/eg/.wine/drive_c/users/eg/AppData/Local/LTspice/lib/st_diacs_pspice/st_diacs.lib
TEXT 40 768 Left 2 !.tran 0 0.01 0 20u
TEXT -128 -280 Left 2 !.inc /home/eg/.wine/drive_c/users/eg/AppData/Local/LTspice/lib/st_high-temp_H-series_triacs_Pspice/st_high-temperature_triacs.lib
TEXT 40 736 Left 2 !.param RPOT=10k
TEXT 40 704 Left 2 !.param A 0.99999
