Version 4
SHEET 1 1004 680
WIRE 336 -32 80 -32
WIRE 336 -16 336 -32
WIRE 80 48 80 -32
WIRE 336 80 336 64
WIRE 336 96 336 80
WIRE 336 176 336 160
WIRE 80 192 80 128
WIRE 336 192 336 176
WIRE 336 192 80 192
WIRE 80 208 80 192
FLAG 80 208 0
FLAG 336 80 A1
FLAG 336 176 A2
FLAG 80 -32 VCC
SYMBOL res 320 -32 R0
SYMATTR InstName R1
SYMATTR Value 1000
SYMBOL Misc\\DIAC 304 96 R0
SYMATTR InstName U1
SYMATTR Value DB3MOD
SYMBOL Misc\\signal 80 32 R0
WINDOW 123 0 0 Left 0
WINDOW 39 0 0 Left 0
SYMATTR InstName V1
SYMATTR Value PWL(0 0 1 {X})
TEXT -144 -304 Left 2 !.inc /home/eg/.wine/drive_c/users/eg/AppData/Local/LTspice/lib/st_diacs_pspice/st_diacs.lib
TEXT 80 264 Left 2 !.tran 0 1 0 0.05ms
TEXT 80 288 Left 2 !.step param X list -50 50
TEXT 472 16 Left 2 ;Vbo=22V
TEXT 472 40 Left 2 ;tr=2u
TEXT 472 64 Left 2 ;delta_V=22V
TEXT 472 88 Left 2 ;Ib0=10u
TEXT 464 -24 Left 2 ;SpiceModel params
