Version 4
SHEET 1 1572 680
WIRE 592 128 432 128
WIRE 432 144 432 128
WIRE 864 224 864 176
WIRE 432 240 432 224
WIRE 432 240 208 240
WIRE 432 272 432 240
WIRE 592 288 592 128
WIRE 208 336 208 320
WIRE 288 336 208 336
WIRE 368 336 352 336
WIRE 384 336 368 336
WIRE 864 336 864 304
WIRE 208 352 208 336
WIRE 208 464 208 432
WIRE 432 464 432 336
WIRE 432 464 208 464
WIRE 592 464 592 368
WIRE 592 464 432 464
WIRE 432 496 432 464
FLAG 432 496 0
FLAG 864 176 A
FLAG 864 336 0
FLAG 368 336 G
SYMBOL Misc\\TRIAC 400 272 R0
SYMATTR InstName U1
SYMATTR Value BT136
SYMBOL Misc\\DIAC 352 304 R90
WINDOW 0 0 32 VBottom 2
WINDOW 3 64 32 VTop 2
SYMATTR InstName U2
SYMATTR Value DB3
SYMBOL res 416 128 R0
SYMATTR InstName R1
SYMATTR Value 4.7k
SYMBOL res 192 336 R0
WINDOW 0 -37 39 Left 2
WINDOW 3 -175 76 Left 2
SYMATTR InstName R2
SYMATTR Value R=(1-V(A))*{RPOT}
SYMBOL res 192 224 R0
WINDOW 0 -36 27 Left 2
WINDOW 3 -134 64 Left 2
SYMATTR InstName R3
SYMATTR Value R=V(A)*RPOT
SYMBOL Misc\\signal 864 208 R0
WINDOW 123 0 0 Left 0
WINDOW 39 0 0 Left 0
SYMATTR InstName V2
SYMATTR Value PWL(0 1e-6 0.15 0.5)
SYMBOL Misc\\signal 592 272 R0
WINDOW 123 0 0 Left 0
WINDOW 39 0 0 Left 0
SYMATTR InstName V1
SYMATTR Value SINE(0 {VCC} 50)
TEXT -88 40 Left 2 !.inc /home/eg/.wine/drive_c/users/eg/AppData/Local/LTspice/lib/st_diacs_pspice/st_diacs.lib
TEXT 176 592 Left 2 !.tran 0 0.15 0 20u
TEXT -88 72 Left 2 !.inc /home/eg/.wine/drive_c/users/eg/AppData/Local/LTspice/lib/st_high-temp_H-series_triacs_Pspice/st_high-temperature_triacs.lib
TEXT 176 560 Left 2 !.step param VCC list 50 75 90 105
TEXT 184 536 Left 2 !.param RPOT=5k
