Version 4
SHEET 1 1496 712
WIRE 848 240 688 240
WIRE 688 272 688 240
WIRE 688 368 688 352
WIRE 848 368 848 240
WIRE 688 384 688 368
WIRE 512 448 432 448
WIRE 640 448 592 448
WIRE 656 448 640 448
WIRE 432 464 432 448
WIRE 688 464 688 448
WIRE 432 560 432 544
WIRE 688 560 688 464
WIRE 688 560 432 560
WIRE 848 560 848 448
WIRE 848 560 688 560
WIRE 688 592 688 560
FLAG 688 592 0
FLAG 688 368 A
FLAG 688 464 K
FLAG 656 448 G
SYMBOL Misc\\SCR 672 384 R0
WINDOW 3 24 28 Left 2
SYMATTR Value BT151
SYMATTR InstName SCR
SYMBOL voltage 848 352 R0
WINDOW 123 0 0 Left 0
WINDOW 39 0 0 Left 0
SYMATTR InstName V1
SYMATTR Value 200
SYMBOL res 672 256 R0
SYMATTR InstName R1
SYMATTR Value 4.7k
SYMBOL Misc\\signal 432 448 R0
WINDOW 3 8 95 Left 2
WINDOW 123 0 0 Left 0
WINDOW 39 0 0 Left 0
SYMATTR Value PWL(0 0 1 5)
SYMATTR InstName VG
SYMBOL res 608 432 R90
WINDOW 0 0 56 VBottom 2
WINDOW 3 32 56 VTop 2
SYMATTR InstName R2
SYMATTR Value 1k
TEXT -24 32 Left 2 !.inc /home/eg/.wine/drive_c/users/eg/AppData/Local/LTspice/lib/st_high-temperature_scr_pspice/st_high-temperature_scr.lib
TEXT 520 696 Left 2 !.tran 0 1 0 20u
