Version 4
SHEET 1 1568 680
WIRE 480 128 320 128
WIRE 320 160 320 128
WIRE 320 288 320 240
WIRE 480 288 480 128
WIRE 272 352 176 352
WIRE 176 368 176 352
WIRE 176 480 176 448
WIRE 320 480 320 352
WIRE 320 480 176 480
WIRE 480 480 480 368
WIRE 480 480 320 480
WIRE 320 512 320 480
FLAG 320 512 0
SYMBOL Misc\\SCR 304 288 R0
WINDOW 3 31 57 Left 2
SYMATTR InstName U1
SYMATTR Value BT151
SYMBOL Misc\\signal 480 272 R0
WINDOW 123 0 0 Left 0
WINDOW 39 0 0 Left 0
SYMATTR InstName V1
SYMATTR Value PWL(0 0 1 1000)
SYMBOL current 176 448 R180
WINDOW 0 24 80 Left 2
WINDOW 3 24 0 Left 2
WINDOW 123 0 0 Left 0
WINDOW 39 0 0 Left 0
SYMATTR InstName I1
SYMATTR Value {IG}
SYMBOL res 304 144 R0
SYMATTR InstName R1
SYMATTR Value 4.7k
TEXT 48 64 Left 2 !.inc /home/eg/.wine/drive_c/users/eg/AppData/Local/LTspice/lib/st_high-temperature_scr_pspice/st_high-temperature_scr.lib
TEXT 158 560 Left 2 !.tran 0 1 0 0.1ms
TEXT 160 592 Left 2 !.step param IG LIST 0.4m 0.8m 1.2m 1.6m 2m
