Version 4
SHEET 1 1368 680
WIRE 528 176 416 176
WIRE 416 192 416 176
WIRE 528 256 528 176
WIRE 416 288 416 272
WIRE 416 400 416 352
WIRE 528 400 528 336
WIRE 528 400 416 400
WIRE 528 416 528 400
FLAG 528 416 0
SYMBOL Misc\\SCR 400 288 R0
WINDOW 3 24 28 Left 2
SYMATTR InstName U1
SYMATTR Value BT151
SYMBOL voltage 528 240 R0
SYMATTR InstName V1
SYMATTR Value 700
SYMBOL res 400 176 R0
SYMATTR InstName R1
SYMATTR Value 4.7k
TEXT -152 48 Left 2 !.inc /home/eg/.wine/drive_c/users/eg/AppData/Local/LTspice/lib/st_high-temperature_scr_pspice/st_high-temperature_scr.lib
TEXT 358 472 Left 2 !.dc V1 0 1500 1
