Version 4
SHEET 1 1584 804
WIRE 768 592 672 592
WIRE 784 592 768 592
WIRE 672 688 672 672
WIRE 816 688 816 592
WIRE 816 688 672 688
WIRE 816 704 816 688
FLAG 816 704 0
SYMBOL Misc\\SCR 800 528 R0
WINDOW 3 39 32 Left 2
SYMATTR InstName U1
SYMATTR Value BT151
SYMBOL Misc\\signal 672 576 R0
WINDOW 0 29 30 Left 2
WINDOW 3 22 93 Left 2
WINDOW 123 0 0 Left 0
WINDOW 39 0 0 Left 0
SYMATTR InstName V1
SYMATTR Value PWL(0 0 1 1.3)
TEXT 64 144 Left 2 !.inc /home/eg/.wine/drive_c/users/eg/AppData/Local/LTspice/lib/st_high-temperature_scr_pspice/st_high-temperature_scr.lib
TEXT 678 748 Left 2 !.tran 0 1 0 0.05ms
