Version 4
SHEET 1 1484 792
WIRE 624 128 432 128
WIRE 432 144 432 128
WIRE 432 240 432 224
WIRE 432 240 80 240
WIRE 80 256 80 240
WIRE 80 352 80 336
WIRE 432 384 432 240
WIRE 80 448 80 432
WIRE 144 448 80 448
WIRE 272 448 224 448
WIRE 384 448 336 448
WIRE 624 448 624 128
WIRE 80 464 80 448
WIRE 432 544 432 448
WIRE 80 576 80 544
WIRE 80 656 80 640
WIRE 432 656 432 624
WIRE 432 656 80 656
WIRE 624 656 624 528
WIRE 624 656 432 656
WIRE 432 704 432 656
FLAG 432 704 0
SYMBOL Misc\\TRIAC 400 384 R0
SYMATTR InstName U1
SYMATTR Value BT136
SYMBOL Misc\\signal 624 432 R0
WINDOW 123 0 0 Left 0
WINDOW 39 0 0 Left 0
SYMATTR InstName V1
SYMATTR Value SINE(0 141 50)
SYMBOL res 416 128 R0
SYMATTR InstName R1
SYMATTR Value 4.7k
SYMBOL res 240 432 R90
WINDOW 0 0 56 VBottom 2
WINDOW 3 32 56 VTop 2
SYMATTR InstName R2
SYMATTR Value 220
SYMBOL res 64 448 M180
WINDOW 0 36 76 Left 2
WINDOW 3 -204 37 Left 2
SYMATTR InstName R3
SYMATTR Value R=(1-{A}*5k)
SYMBOL res 64 560 M180
WINDOW 0 36 76 Left 2
WINDOW 3 -152 45 Left 2
SYMATTR InstName R4
SYMATTR Value R={A}*5k
SYMBOL res 64 352 M180
WINDOW 0 36 76 Left 2
WINDOW 3 36 40 Left 2
SYMATTR InstName R5
SYMATTR Value 2.2k
SYMBOL cap 64 576 R0
SYMATTR InstName C1
SYMATTR Value 0.1µ
SYMBOL res 416 528 R0
SYMATTR InstName R6
SYMATTR Value 100
SYMBOL Misc\\DIAC 336 416 R90
WINDOW 0 0 32 VBottom 2
WINDOW 3 64 32 VTop 2
SYMATTR InstName U2
TEXT -120 16 Left 2 !.inc /home/eg/.wine/drive_c/users/eg/AppData/Local/LTspice/lib/st_diacs_pspice/st_diacs.lib
TEXT -120 48 Left 2 !.inc /home/eg/.wine/drive_c/users/eg/AppData/Local/LTspice/lib/st_high-temp_H-series_triacs_Pspice/st_high-temperature_triacs.lib
TEXT 72 752 Left 2 !.step param A list 0.99999 0.5 0.0001
TEXT 72 776 Left 2 !.tran 0 1 0 0.1ms
