Version 4
SHEET 1 1412 936
WIRE 1408 16 1328 16
WIRE -1088 160 -1152 160
WIRE -1216 208 -1216 160
WIRE -1216 208 -1408 208
WIRE -1024 224 -1024 160
WIRE -976 224 -1024 224
WIRE -1216 272 -1216 208
WIRE -1120 272 -1152 272
WIRE -1088 272 -1120 272
WIRE -1072 272 -1088 272
WIRE -1024 272 -1024 224
WIRE -1408 352 -1408 288
WIRE -976 352 -976 224
WIRE -976 352 -1408 352
WIRE -1120 832 -1120 272
WIRE 1328 832 1328 16
WIRE 1328 832 -1120 832
WIRE -1120 896 -1120 832
FLAG -1120 896 0
SYMBOL diode -1216 176 R270
WINDOW 0 32 32 VTop 2
WINDOW 3 0 32 VBottom 2
SYMATTR InstName D1
SYMBOL diode -1088 176 R270
WINDOW 0 32 32 VTop 2
WINDOW 3 0 32 VBottom 2
SYMATTR InstName D2
SYMBOL diode -1216 288 R270
WINDOW 0 32 32 VTop 2
WINDOW 3 0 32 VBottom 2
SYMATTR InstName D3
SYMBOL diode -1088 288 R270
WINDOW 0 32 32 VTop 2
WINDOW 3 0 32 VBottom 2
SYMATTR InstName D4
SYMBOL Misc\\signal -1408 192 R0
WINDOW 123 0 0 Left 0
WINDOW 39 0 0 Left 0
SYMATTR InstName V1
SYMATTR Value SINE(0 220 .5K)
SYMBOL cap -960 240 R0
SYMATTR InstName C1
SYMBOL zener -768 304 R180
WINDOW 0 24 64 Left 2
WINDOW 3 24 0 Left 2
SYMATTR InstName D5
SYMBOL pnp -656 208 R0
SYMATTR InstName Q1
SYMBOL pnp -464 336 R0
SYMATTR InstName Q2
SYMBOL pnp 240 -208 R0
SYMATTR InstName Q3
SYMBOL pnp 464 -128 R270
SYMATTR InstName Q4
SYMBOL npn 688 -256 R270
SYMATTR InstName Q5
SYMBOL res -432 -240 R90
WINDOW 0 0 56 VBottom 2
WINDOW 3 32 56 VTop 2
SYMATTR InstName R1
SYMBOL res -432 -160 R90
WINDOW 0 0 56 VBottom 2
WINDOW 3 32 56 VTop 2
SYMATTR InstName R2
SYMBOL res -576 528 R180
WINDOW 0 36 76 Left 2
WINDOW 3 36 40 Left 2
SYMATTR InstName R3
SYMBOL res -576 400 R270
WINDOW 0 32 56 VTop 2
WINDOW 3 0 56 VBottom 2
SYMATTR InstName R4
SYMBOL res -608 608 R0
SYMATTR InstName R5
SYMBOL res -416 448 R0
SYMATTR InstName R6
SYMBOL res -416 592 R0
SYMATTR InstName R7
SYMBOL res -720 160 R0
SYMATTR InstName R8
SYMBOL res -464 192 R90
WINDOW 0 0 56 VBottom 2
WINDOW 3 32 56 VTop 2
SYMATTR InstName R9
SYMBOL res -464 352 R180
WINDOW 0 36 76 Left 2
WINDOW 3 36 40 Left 2
SYMATTR InstName R10
SYMBOL pnp -208 384 R0
SYMATTR InstName Q6
SYMBOL diode -256 416 R90
WINDOW 0 0 32 VBottom 2
WINDOW 3 32 32 VTop 2
SYMATTR InstName D6
SYMBOL LED -160 624 R0
SYMATTR InstName D7
SYMBOL res 304 560 R0
SYMATTR InstName R11
SYMBOL res 304 672 R0
SYMATTR InstName R12
SYMBOL res 224 608 R0
SYMATTR InstName R13
SYMBOL cap 880 -240 R0
SYMATTR InstName C2
SYMBOL cap -400 128 R90
WINDOW 0 0 32 VBottom 2
WINDOW 3 32 32 VTop 2
SYMATTR InstName C3
SYMBOL zener 32 480 R180
WINDOW 0 24 64 Left 2
WINDOW 3 24 0 Left 2
SYMATTR InstName D8
SYMBOL res 160 160 R90
WINDOW 0 0 56 VBottom 2
WINDOW 3 32 56 VTop 2
SYMATTR InstName R14
SYMBOL res -16 80 R180
WINDOW 0 36 76 Left 2
WINDOW 3 36 40 Left 2
SYMATTR InstName R15
SYMBOL res 64 80 R180
WINDOW 0 36 76 Left 2
WINDOW 3 36 40 Left 2
SYMATTR InstName R16
SYMBOL zener 528 48 R180
WINDOW 0 24 64 Left 2
WINDOW 3 24 0 Left 2
SYMATTR InstName D9
SYMBOL cap 640 176 R90
WINDOW 0 0 32 VBottom 2
WINDOW 3 32 32 VTop 2
SYMATTR InstName C4
SYMBOL res 832 112 R0
SYMATTR InstName R17
TEXT -1442 920 Left 2 !.tran 0 1s 0 1ms
