Version 4
SHEET 1 5124 680
WIRE 192 64 -64 64
WIRE -64 112 -64 64
WIRE 192 112 192 64
WIRE 128 208 128 160
WIRE 192 208 128 208
WIRE -64 256 -64 192
WIRE 192 256 192 208
WIRE 192 256 -64 256
WIRE 192 272 192 256
FLAG 192 272 0
FLAG 192 112 C
FLAG 128 160 B
DATAFLAG 128 208 ""
DATAFLAG 192 64 "Ic(Q1)"
SYMBOL npn 128 112 R0
WINDOW 0 54 45 Left 2
SYMATTR InstName Q1
SYMATTR Value MOD548
SYMBOL voltage -64 96 R0
SYMATTR InstName V1
SYMATTR Value 10
TEXT -96 296 Left 2 !.op
TEXT -96 328 Left 2 !.model MOD548 ako:BC548C BF=300
