Version 4
SHEET 1 880 680
WIRE 256 64 48 64
WIRE 48 96 48 64
WIRE 256 96 256 64
WIRE 192 144 176 144
WIRE 48 224 48 176
WIRE 176 224 176 144
WIRE 176 224 48 224
WIRE 256 224 256 192
WIRE 256 224 176 224
WIRE 256 240 256 224
FLAG 256 240 0
DATAFLAG 176 64 "Ic(Q1)"
SYMBOL npn 192 96 R0
SYMATTR InstName Q1
SYMATTR Value MOD548
SYMBOL voltage 48 80 R0
WINDOW 123 0 0 Left 0
WINDOW 39 0 0 Left 0
SYMATTR InstName V1
SYMATTR Value 10
TEXT 40 280 Left 2 !.model MOD548 ako:BC548C BF=236
TEXT 40 304 Left 2 !.op
