Version 4
SHEET 1 1004 680
WIRE 336 -32 80 -32
WIRE 336 -16 336 -32
WIRE 80 48 80 -32
WIRE 336 80 336 64
WIRE 336 96 336 80
WIRE 336 176 336 160
WIRE 80 192 80 128
WIRE 336 192 336 176
WIRE 336 192 80 192
WIRE 80 208 80 192
FLAG 80 208 0
FLAG 336 80 A1
FLAG 336 176 A2
FLAG 80 -32 VCC
SYMBOL res 320 -32 R0
SYMATTR InstName R1
SYMATTR Value 1.5k
SYMBOL Misc\\DIAC 304 96 R0
SYMATTR InstName U1
SYMATTR Value DB3
SYMBOL Misc\\signal 80 32 R0
WINDOW 123 0 0 Left 0
WINDOW 39 0 0 Left 0
SYMATTR InstName V1
SYMATTR Value PWL(0 0 1 {X})
TEXT -144 -304 Left 2 !.inc /home/eg/.wine/drive_c/users/eg/AppData/Local/LTspice/lib/st_diacs_pspice/st_diacs.lib
TEXT 78 260 Left 2 !.tran 0 1 0 0.1ms
TEXT 80 288 Left 2 !.step param X list -50 50
