Version 4
SHEET 1 880 680
WIRE 128 96 -64 96
WIRE 368 96 288 96
WIRE 368 112 368 96
WIRE -64 144 -64 96
WIRE 208 240 208 192
WIRE 368 240 368 192
WIRE 368 240 208 240
WIRE -64 320 -64 224
WIRE 208 320 -64 320
WIRE 208 336 208 320
FLAG 208 336 0
DATAFLAG 336 96 ""
SYMBOL PowerProducts\\LM317 208 128 R0
SYMATTR InstName U1
SYMBOL voltage -64 128 R0
WINDOW 123 0 0 Left 0
WINDOW 39 0 0 Left 0
SYMATTR InstName V1
SYMATTR Value 24
SYMBOL res 352 96 R0
SYMATTR InstName R1
SYMATTR Value 240
SYMBOL res 192 224 R0
SYMATTR InstName R2
SYMATTR Value 1.5k
TEXT -98 250 Left 2 !.op
