Version 4
SHEET 1 880 680
WIRE 32 160 -16 160
WIRE 144 160 112 160
WIRE 160 160 144 160
WIRE 176 160 160 160
WIRE -16 176 -16 160
WIRE -16 272 -16 256
WIRE 224 272 224 224
WIRE 224 272 -16 272
WIRE 224 304 224 272
FLAG 224 304 0
FLAG 160 160 E
FLAG 224 224 B1
SYMBOL Misc\\2n2646 208 176 R0
SYMATTR InstName U1
SYMBOL res 16 176 R270
WINDOW 0 32 56 VTop 2
WINDOW 3 0 56 VBottom 2
SYMATTR InstName R1
SYMATTR Value 1k
SYMBOL voltage -16 160 R0
SYMATTR InstName VEE
SYMATTR Value ""
TEXT -16 328 Left 2 !.dc VEE 1 30 0.1
TEXT 224 176 Left 2 ;2N2646
