Version 4
SHEET 1 880 680
WIRE 144 160 32 160
WIRE 176 160 144 160
WIRE 32 176 32 160
WIRE 32 272 32 256
WIRE 224 272 224 224
WIRE 224 272 32 272
WIRE 224 304 224 272
FLAG 224 304 0
SYMBOL Misc\\2n2646 208 176 R0
SYMATTR InstName U1
SYMBOL Misc\\signal 32 160 R0
WINDOW 3 16 94 Left 2
WINDOW 123 0 0 Left 0
WINDOW 39 0 0 Left 0
SYMATTR InstName V1
SYMATTR Value PWL(0 0 1 30)
TEXT 30 312 Left 2 !.tran 0 1 0 1ms
