Version 4
SHEET 1 880 680
WIRE 336 0 224 0
WIRE 224 16 224 0
WIRE 336 80 336 0
WIRE 224 112 224 96
WIRE 224 224 224 192
WIRE 336 224 336 160
WIRE 336 224 224 224
WIRE 224 240 224 224
FLAG 224 240 0
SYMBOL Misc\\2n2646 208 144 R0
SYMATTR InstName U1
SYMBOL Misc\\signal 336 64 R0
WINDOW 123 0 0 Left 0
WINDOW 39 0 0 Left 0
SYMATTR InstName V1
SYMATTR Value PWL(0 0 1 30)
SYMBOL res 208 0 R0
SYMATTR InstName R1
SYMATTR Value 1k
TEXT 210 288 Left 2 !.tran 0 1 0 0.01
