Version 4
SHEET 1 880 680
WIRE 240 -96 240 -160
WIRE 240 -96 160 -96
WIRE 320 -96 240 -96
WIRE 320 -80 320 -96
WIRE 160 -48 160 -96
WIRE -16 -32 -16 -64
WIRE 320 16 320 0
WIRE 160 48 160 32
WIRE -16 64 -16 48
WIRE 160 96 160 48
WIRE 320 128 320 96
WIRE 320 128 240 128
WIRE 320 144 320 128
WIRE -16 192 -16 176
WIRE 160 208 160 192
WIRE 320 224 320 208
WIRE -16 288 -16 272
WIRE 160 304 160 288
FLAG 160 304 0
FLAG 320 224 0
FLAG 160 48 B2
FLAG 160 192 B1
FLAG 240 128 E
FLAG 240 -160 COM
FLAG -16 -64 COM
FLAG -16 64 0
FLAG -16 288 0
FLAG -16 176 RPOT
SYMBOL Misc\\2n2646 176 144 M0
SYMATTR InstName U1
SYMBOL cap 304 144 R0
SYMATTR InstName C1
SYMATTR Value 47n
SYMBOL res 304 -96 R0
SYMATTR InstName POT
SYMATTR Value R=V(RPOT)
SYMBOL res 144 -64 R0
SYMATTR InstName R3
SYMATTR Value 100
SYMBOL res 144 192 R0
SYMATTR InstName R4
SYMATTR Value 22
SYMBOL voltage -16 -48 R0
WINDOW 123 0 0 Left 0
WINDOW 39 0 0 Left 0
SYMATTR InstName V1
SYMATTR Value 20
SYMBOL Misc\\signal -16 176 R0
WINDOW 3 -241 147 Left 2
WINDOW 123 0 0 Left 0
WINDOW 39 0 0 Left 0
SYMATTR Value PWL(85m 1e-20 110m 100k)
SYMATTR InstName V2
SYMBOL res 304 0 R0
SYMATTR InstName R5
SYMATTR Value 4.7k
TEXT -32 392 Left 2 !.tran 0 110ms 85ms 0.8ms
