Version 4
SHEET 1 880 680
WIRE 384 96 240 96
WIRE 160 112 80 112
WIRE 240 112 240 96
WIRE 384 112 384 96
WIRE 80 128 80 112
WIRE 160 176 160 112
WIRE 176 176 160 176
WIRE 192 176 176 176
WIRE 80 224 80 208
WIRE 240 224 240 208
WIRE 240 224 80 224
WIRE 384 224 384 192
WIRE 384 224 240 224
WIRE 80 240 80 224
FLAG 80 240 0
FLAG 176 176 G
FLAG 240 96 D
FLAG 240 224 S
SYMBOL njf 192 112 R0
SYMATTR InstName J1
SYMATTR Value 2N3819
SYMBOL Misc\\signal 80 112 R0
WINDOW 3 5 97 Left 2
WINDOW 123 0 0 Left 0
WINDOW 39 0 0 Left 0
SYMATTR Value {VGS}
SYMATTR InstName Vgs
SYMBOL Misc\\signal 384 96 R0
WINDOW 123 0 0 Left 0
WINDOW 39 0 0 Left 0
SYMATTR InstName Vds
SYMATTR Value PWL(0 0 1 20)
TEXT 72 280 Left 2 !.tran 0 1 0 10u
TEXT 72 304 Left 2 !.step param VGS LIST 0 -1 -2 -3 -4 -5
