Version 4
SHEET 1 880 680
WIRE 384 -32 240 -32
WIRE 240 0 240 -32
WIRE 384 96 384 -32
WIRE 240 112 240 80
WIRE 176 176 80 176
WIRE 192 176 176 176
WIRE 80 192 80 176
WIRE 80 288 80 272
WIRE 240 288 240 208
WIRE 240 288 80 288
WIRE 384 288 384 176
WIRE 384 288 240 288
WIRE 80 304 80 288
FLAG 80 304 0
FLAG 176 176 G
FLAG 240 288 S
FLAG 240 112 D
SYMBOL njf 192 112 R0
SYMATTR InstName J1
SYMATTR Value Jx
SYMBOL Misc\\signal 80 176 R0
WINDOW 3 5 97 Left 2
WINDOW 123 0 0 Left 0
WINDOW 39 0 0 Left 0
SYMATTR Value {VGS}
SYMATTR InstName Vgs
SYMBOL Misc\\signal 384 80 R0
WINDOW 123 0 0 Left 0
WINDOW 39 0 0 Left 0
SYMATTR InstName Vds
SYMATTR Value 20
SYMBOL res 224 -16 R0
SYMATTR InstName R1
SYMATTR Value {RD}
TEXT 72 344 Left 2 !.op
TEXT 72 368 Left 2 !.step param VGS LIST 0 -1 -2
TEXT 72 392 Left 2 !.step param RD LIST 1.5k 3.3k 10k
TEXT 72 416 Left 2 !.model Jx njf(Beta=728.5u, Vto=-3.8)
